  Page 1                                    Tue Dec 29 22:34:31 2015

  ******************************************************************
  *                           E P A N E T                          *
  *                   Hydraulic and Water Quality                  *
  *                   Analysis for Pipe Networks                   *
  *                         Version 2.00.12                        *
  ******************************************************************
  
  Analysis begun Tue Dec 29 22:34:31 2015

  Processing MSX input file Ex_PhA3_Sc.msx
  
  
Page 1                                               EPANET-MSX 1.1
  
  ******************************************************************
  *                      E P A N E T  -  M S X                     *
  *                   Multi-Species Water Quality                  *
  *                   Analysis for Pipe  Networks                  *
  *                           Version 1.1                          *
  ******************************************************************
  
  NET3 Chloramine Decay Example; Also include NDMA

  
  <<< Node A >>>
  
  Time            NH3       NH2CL        cNH3      cNH2CL        NDMA
  hr:min       MMOL/L      MMOL/L        MG/L        MG/L        NG/L
  -------  ----------  ----------  ----------  ----------  ----------
     0:00        0.00        0.00        0.00        0.00        0.00
     2:00        0.00        0.00        0.00        0.00        0.00
     4:00        0.00        0.00        0.26        2.13        0.00
     6:00        0.00        0.00        0.26        2.13        0.00
     8:00        0.00        0.00        0.26        2.13        0.00
    10:00        0.00        0.00        0.26        2.13        0.00
    12:00        0.00        0.00        0.26        2.13        0.00
    14:00        0.00        0.00        0.26        2.13        0.00
    16:00        0.00        0.00        0.26        2.13        0.00
    18:00        0.00        0.00        0.26        2.13        0.00
    20:00        0.00        0.00        0.26        2.13        0.00
    22:00        0.00        0.00        0.26        2.13        0.00
    24:00        0.00        0.00        0.26        2.13        0.00
  
  <<< Node B >>>
  
  Time            NH3       NH2CL        cNH3      cNH2CL        NDMA
  hr:min       MMOL/L      MMOL/L        MG/L        MG/L        NG/L
  -------  ----------  ----------  ----------  ----------  ----------
     0:00        0.00        0.00        0.00        0.00        0.00
     2:00        0.00        0.00        0.00        0.00        0.00
     4:00        0.00        0.00        0.00        0.00        0.00
     6:00        0.00        0.00        0.53        1.17        0.00
     8:00        0.00        0.00        0.53        1.17        0.00
    10:00        0.00        0.00        0.53        1.17        0.00
    12:00        0.00        0.00        0.53        1.17        0.00
    14:00        0.00        0.00        0.53        1.17        0.00
    16:00        0.00        0.00        0.53        1.17        0.00
    18:00        0.00        0.00        0.53        1.17        0.00
    20:00        0.00        0.00        0.53        1.17        0.00
    22:00        0.00        0.00        0.53        1.17        0.00
    24:00        0.00        0.00        0.53        1.17        0.00
  
  <<< Node C >>>
  
  Time            NH3       NH2CL        cNH3      cNH2CL        NDMA
  hr:min       MMOL/L      MMOL/L        MG/L        MG/L        NG/L
  -------  ----------  ----------  ----------  ----------  ----------
     0:00        0.00        0.00        0.00        0.00        0.00
     2:00        0.00        0.00        0.00        0.00        0.00
     4:00        0.00        0.00        0.00        0.00        0.00
     6:00        0.00        0.00        0.00        0.00        0.00
     8:00        0.00        0.00        0.56        0.82        0.00
    10:00        0.00        0.00        0.56        0.82        0.00
    12:00        0.00        0.00        0.56        0.82        0.00
    14:00        0.00        0.00        0.56        0.82        0.00
    16:00        0.00        0.00        0.56        0.82        0.00
    18:00        0.00        0.00        0.56        0.82        0.00
    20:00        0.00        0.00        0.56        0.82        0.00
    22:00        0.00        0.00        0.56        0.82        0.00
    24:00        0.00        0.00        0.56        0.82        0.00
  
  <<< Node D >>>
  
  Time            NH3       NH2CL        cNH3      cNH2CL        NDMA
  hr:min       MMOL/L      MMOL/L        MG/L        MG/L        NG/L
  -------  ----------  ----------  ----------  ----------  ----------
     0:00        0.00        0.00        0.00        0.00        0.00
     2:00        0.00        0.00        0.00        0.00        0.00
     4:00        0.00        0.00        0.00        0.00        0.00
     6:00        0.00        0.00        0.00        0.00        0.00
     8:00        0.00        0.00        0.00        0.00        0.00
    10:00        0.00        0.00        0.00        0.00        0.00
    12:00        0.00        0.00        0.00        0.00        0.00
    14:00        0.00        0.00        0.00        0.00        0.00
    16:00        0.00        0.00        0.00        0.00        0.00
    18:00        0.00        0.00        0.00        0.00        0.00
    20:00        0.00        0.00        0.00        0.00        0.00
    22:00        0.00        0.00        0.00        0.00        0.00
    24:00        0.00        0.00        0.78        0.07        0.00
  
  <<< Node Source >>>
  
  Time            NH3       NH2CL        cNH3      cNH2CL        NDMA
  hr:min       MMOL/L      MMOL/L        MG/L        MG/L        NG/L
  -------  ----------  ----------  ----------  ----------  ----------
     0:00        0.00        0.00        0.00        0.00        0.00
     2:00        0.00        0.00        0.00        3.00        0.00
     4:00        0.00        0.00        0.00        3.00        0.00
     6:00        0.00        0.00        0.00        3.00        0.00
     8:00        0.00        0.00        0.00        3.00        0.00
    10:00        0.00        0.00        0.00        3.00        0.00
    12:00        0.00        0.00        0.00        3.00        0.00
    14:00        0.00        0.00        0.00        3.00        0.00
    16:00        0.00        0.00        0.00        3.00        0.00
    18:00        0.00        0.00        0.00        3.00        0.00
    20:00        0.00        0.00        0.00        3.00        0.00
    22:00        0.00        0.00        0.00        3.00        0.00
    24:00        0.00        0.00        0.00        3.00        0.00
  
  <<< Node Tank >>>
  
  Time            NH3       NH2CL        cNH3      cNH2CL        NDMA
  hr:min       MMOL/L      MMOL/L        MG/L        MG/L        NG/L
  -------  ----------  ----------  ----------  ----------  ----------
     0:00        0.00        0.00        0.00        0.00        0.00
     2:00        0.00        0.00        0.00        0.00        0.00
     4:00        0.00        0.00        0.00        0.00        0.00
     6:00        0.00        0.00        0.00        0.00        0.00
     8:00        0.00        0.00        0.00        0.00        0.00
    10:00        0.00        0.00        0.00        0.00        0.00
    12:00        0.00        0.00        0.00        0.00        0.00
    14:00        0.00        0.00        0.00        0.00        0.00
    16:00        0.00        0.00        0.00        0.00        0.00
    18:00        0.00        0.00        0.00        0.00        0.00
    20:00        0.00        0.00        0.00        0.00        0.00
    22:00        0.00        0.00        0.00        0.00        0.00
    24:00        0.00        0.00        0.00        0.00        0.00
  
  <<< Link 1 >>>
  
  Time            NH3       NH2CL        cNH3      cNH2CL        NDMA
  hr:min       MMOL/L      MMOL/L        MG/L        MG/L        NG/L
  -------  ----------  ----------  ----------  ----------  ----------
     0:00        0.00        0.00        0.00        0.00        0.00
     2:00        0.00        0.00        0.13        2.53        0.00
     4:00        0.00        0.00        0.13        2.56        0.00
     6:00        0.00        0.00        0.13        2.56        0.00
     8:00        0.00        0.00        0.13        2.56        0.00
    10:00        0.00        0.00        0.13        2.56        0.00
    12:00        0.00        0.00        0.13        2.56        0.00
    14:00        0.00        0.00        0.13        2.56        0.00
    16:00        0.00        0.00        0.13        2.56        0.00
    18:00        0.00        0.00        0.13        2.56        0.00
    20:00        0.00        0.00        0.13        2.56        0.00
    22:00        0.00        0.00        0.13        2.56        0.00
    24:00        0.00        0.00        0.13        2.56        0.00
  
  <<< Link 2 >>>
  
  Time            NH3       NH2CL        cNH3      cNH2CL        NDMA
  hr:min       MMOL/L      MMOL/L        MG/L        MG/L        NG/L
  -------  ----------  ----------  ----------  ----------  ----------
     0:00        0.00        0.00        0.00        0.00        0.00
     2:00        0.00        0.00        0.00        0.00        0.00
     4:00        0.00        0.00        0.20        1.05        0.00
     6:00        0.00        0.00        0.40        1.61        0.00
     8:00        0.00        0.00        0.40        1.61        0.00
    10:00        0.00        0.00        0.40        1.61        0.00
    12:00        0.00        0.00        0.40        1.61        0.00
    14:00        0.00        0.00        0.40        1.61        0.00
    16:00        0.00        0.00        0.40        1.61        0.00
    18:00        0.00        0.00        0.40        1.61        0.00
    20:00        0.00        0.00        0.40        1.61        0.00
    22:00        0.00        0.00        0.40        1.61        0.00
    24:00        0.00        0.00        0.40        1.61        0.00
  
  <<< Link 3 >>>
  
  Time            NH3       NH2CL        cNH3      cNH2CL        NDMA
  hr:min       MMOL/L      MMOL/L        MG/L        MG/L        NG/L
  -------  ----------  ----------  ----------  ----------  ----------
     0:00        0.00        0.00        0.00        0.00        0.00
     2:00        0.00        0.00        0.00        0.00        0.00
     4:00        0.00        0.00        0.13        0.70        0.00
     6:00        0.00        0.00        0.32        1.21        0.00
     8:00        0.00        0.00        0.46        1.44        0.00
    10:00        0.00        0.00        0.46        1.44        0.00
    12:00        0.00        0.00        0.46        1.44        0.00
    14:00        0.00        0.00        0.46        1.44        0.00
    16:00        0.00        0.00        0.46        1.44        0.00
    18:00        0.00        0.00        0.46        1.44        0.00
    20:00        0.00        0.00        0.46        1.44        0.00
    22:00        0.00        0.00        0.46        1.44        0.00
    24:00        0.00        0.00        0.46        1.44        0.00
  
  <<< Link 4 >>>
  
  Time            NH3       NH2CL        cNH3      cNH2CL        NDMA
  hr:min       MMOL/L      MMOL/L        MG/L        MG/L        NG/L
  -------  ----------  ----------  ----------  ----------  ----------
     0:00        0.00        0.00        0.00        0.00        0.00
     2:00        0.00        0.00        0.00        0.00        0.00
     4:00        0.00        0.00        0.00        0.00        0.00
     6:00        0.00        0.00        0.01        0.03        0.00
     8:00        0.00        0.00        0.06        0.10        0.00
    10:00        0.00        0.00        0.12        0.16        0.00
    12:00        0.00        0.00        0.18        0.20        0.00
    14:00        0.00        0.00        0.25        0.23        0.00
    16:00        0.00        0.00        0.32        0.25        0.00
    18:00        0.00        0.00        0.39        0.26        0.00
    20:00        0.00        0.00        0.46        0.27        0.00
    22:00        0.00        0.00        0.53        0.28        0.00
    24:00        0.00        0.00        0.60        0.29        0.00
  
  <<< Link 5 >>>
  
  Time            NH3       NH2CL        cNH3      cNH2CL        NDMA
  hr:min       MMOL/L      MMOL/L        MG/L        MG/L        NG/L
  -------  ----------  ----------  ----------  ----------  ----------
     0:00        0.00        0.00        0.00        0.00        0.00
     2:00        0.00        0.00        0.00        0.00        0.00
     4:00        0.00        0.00        0.00        0.00        0.00
     6:00        0.00        0.00        0.00        0.00        0.00
     8:00        0.00        0.00        0.03        0.04        0.00
    10:00        0.00        0.00        0.11        0.12        0.00
    12:00        0.00        0.00        0.20        0.18        0.00
    14:00        0.00        0.00        0.29        0.22        0.00
    16:00        0.00        0.00        0.38        0.26        0.00
    18:00        0.00        0.00        0.48        0.28        0.00
    20:00        0.00        0.00        0.58        0.30        0.00
    22:00        0.00        0.00        0.68        0.31        0.00
    24:00        0.00        0.00        0.71        0.31        0.00
  
  <<< Link 6 >>>
  
  Time            NH3       NH2CL        cNH3      cNH2CL        NDMA
  hr:min       MMOL/L      MMOL/L        MG/L        MG/L        NG/L
  -------  ----------  ----------  ----------  ----------  ----------
     0:00        0.00        0.00        0.00        0.00        0.00
     2:00        0.00        0.00        0.00        0.00        0.00
     4:00        0.00        0.00        0.00        0.00        0.00
     6:00        0.00        0.00        0.00        0.00        0.00
     8:00        0.00        0.00        0.57        0.56        0.00
    10:00        0.00        0.00        0.57        0.56        0.00
    12:00        0.00        0.00        0.57        0.56        0.00
    14:00        0.00        0.00        0.57        0.56        0.00
    16:00        0.00        0.00        0.57        0.56        0.00
    18:00        0.00        0.00        0.57        0.56        0.00
    20:00        0.00        0.00        0.57        0.56        0.00
    22:00        0.00        0.00        0.57        0.56        0.00
    24:00        0.00        0.00        0.57        0.56        0.00
  
  Analysis ended Tue Dec 29 22:34:40 2015
