  Page 1                                    Tue Dec 29 23:41:02 2015

  ******************************************************************
  *                           E P A N E T                          *
  *                   Hydraulic and Water Quality                  *
  *                   Analysis for Pipe Networks                   *
  *                         Version 2.00.12                        *
  ******************************************************************
  
  Analysis begun Tue Dec 29 23:41:02 2015

  Processing MSX input file Ex_PhA3_Sc.msx
  
  
Page 1                                               EPANET-MSX 1.1
  
  ******************************************************************
  *                      E P A N E T  -  M S X                     *
  *                   Multi-Species Water Quality                  *
  *                   Analysis for Pipe  Networks                  *
  *                           Version 1.1                          *
  ******************************************************************
  
  NET3 Chloramine Decay Example; Also include NDMA

  
  <<< Node A >>>
  
  Time            Age        HOCL         NH3       NH2CL       NHCL2           I         OCL         NH4         ALK           H          OH         CO3        HCO3       H2CO3         TOC        cNH3      cNH2CL        NDMA
  hr:min         HR/L      MMOL/L      MMOL/L      MMOL/L      MMOL/L      MMOL/L      MMOL/L      MMOL/L      MMOL/L      MMOL/L      MMOL/L      MMOL/L      MMOL/L      MMOL/L        MG/L        MG/L        MG/L        NG/L
  -------  ----------  ----------  ----------  ----------  ----------  ----------  ----------  ----------  ----------  ----------  ----------  ----------  ----------  ----------  ----------  ----------  ----------  ----------
   119:00  2.02230811  0.00000000  0.00001504  0.00004133  0.00000006  0.00000000  0.00000000  0.00084620  0.00400000  0.00000003  0.00000035  0.00000709  0.00398550  0.00022407  3.00000000  0.25575033  2.12871599  0.00058831
  
  <<< Node B >>>
  
  Time            Age        HOCL         NH3       NH2CL       NHCL2           I         OCL         NH4         ALK           H          OH         CO3        HCO3       H2CO3         TOC        cNH3      cNH2CL        NDMA
  hr:min         HR/L      MMOL/L      MMOL/L      MMOL/L      MMOL/L      MMOL/L      MMOL/L      MMOL/L      MMOL/L      MMOL/L      MMOL/L      MMOL/L      MMOL/L      MMOL/L        MG/L        MG/L        MG/L        NG/L
  -------  ----------  ----------  ----------  ----------  ----------  ----------  ----------  ----------  ----------  ----------  ----------  ----------  ----------  ----------  ----------  ----------  ----------  ----------
   119:00  5.43401623  0.00000000  0.00003101  0.00002274  0.00000007  0.00000000  0.00000000  0.00174432  0.00400000  0.00000003  0.00000035  0.00000709  0.00398550  0.00022407  3.00000000  0.52719468  1.17134261  0.00121411
  
  <<< Node C >>>
  
  Time            Age        HOCL         NH3       NH2CL       NHCL2           I         OCL         NH4         ALK           H          OH         CO3        HCO3       H2CO3         TOC        cNH3      cNH2CL        NDMA
  hr:min         HR/L      MMOL/L      MMOL/L      MMOL/L      MMOL/L      MMOL/L      MMOL/L      MMOL/L      MMOL/L      MMOL/L      MMOL/L      MMOL/L      MMOL/L      MMOL/L        MG/L        MG/L        MG/L        NG/L
  -------  ----------  ----------  ----------  ----------  ----------  ----------  ----------  ----------  ----------  ----------  ----------  ----------  ----------  ----------  ----------  ----------  ----------  ----------
   119:00  9.22958374  0.00000000  0.00003797  0.00001596  0.00000006  0.00000000  0.00000000  0.00213580  0.00400000  0.00000003  0.00000035  0.00000709  0.00398550  0.00022407  3.00000000  0.64551395  0.82174897  0.00148732
  
  <<< Node D >>>
  
  Time            Age        HOCL         NH3       NH2CL       NHCL2           I         OCL         NH4         ALK           H          OH         CO3        HCO3       H2CO3         TOC        cNH3      cNH2CL        NDMA
  hr:min         HR/L      MMOL/L      MMOL/L      MMOL/L      MMOL/L      MMOL/L      MMOL/L      MMOL/L      MMOL/L      MMOL/L      MMOL/L      MMOL/L      MMOL/L      MMOL/L        MG/L        MG/L        MG/L        NG/L
  -------  ----------  ----------  ----------  ----------  ----------  ----------  ----------  ----------  ----------  ----------  ----------  ----------  ----------  ----------  ----------  ----------  ----------  ----------
   119:00  24.59597015  0.00000000  0.00005093  0.00000114  0.00000001  0.00000000  0.00000000  0.00286460  0.00400000  0.00000003  0.00000035  0.00000709  0.00398550  0.00022407  3.00000000  0.86578560  0.05892729  0.00199713
  
  <<< Node Source >>>
  
  Time            Age        HOCL         NH3       NH2CL       NHCL2           I         OCL         NH4         ALK           H          OH         CO3        HCO3       H2CO3         TOC        cNH3      cNH2CL        NDMA
  hr:min         HR/L      MMOL/L      MMOL/L      MMOL/L      MMOL/L      MMOL/L      MMOL/L      MMOL/L      MMOL/L      MMOL/L      MMOL/L      MMOL/L      MMOL/L      MMOL/L        MG/L        MG/L        MG/L        NG/L
  -------  ----------  ----------  ----------  ----------  ----------  ----------  ----------  ----------  ----------  ----------  ----------  ----------  ----------  ----------  ----------  ----------  ----------  ----------
   119:00  0.00000000  0.00000000  0.00000000  0.00005825  0.00000000  0.00000000  0.00000000  0.00000000  0.00400000  0.00000003  0.00000035  0.00000709  0.00398550  0.00022407  3.00000000  0.00000000  2.99999857  0.00000000
  
  <<< Node Tank >>>
  
  Time            Age        HOCL         NH3       NH2CL       NHCL2           I         OCL         NH4         ALK           H          OH         CO3        HCO3       H2CO3         TOC        cNH3      cNH2CL        NDMA
  hr:min         HR/L      MMOL/L      MMOL/L      MMOL/L      MMOL/L      MMOL/L      MMOL/L      MMOL/L      MMOL/L      MMOL/L      MMOL/L      MMOL/L      MMOL/L      MMOL/L        MG/L        MG/L        MG/L        NG/L
  -------  ----------  ----------  ----------  ----------  ----------  ----------  ----------  ----------  ----------  ----------  ----------  ----------  ----------  ----------  ----------  ----------  ----------  ----------
   119:00  118.92845154  0.00000000  0.00000005  0.00000001  0.00000000  0.00000000  0.00000000  0.00000282  0.00400000  0.00000003  0.00000035  0.00000709  0.00398550  0.00022407  0.00391173  0.00085304  0.00039015  0.00000197
  
  <<< Link 1 >>>
  
  Time            Age        HOCL         NH3       NH2CL       NHCL2           I         OCL         NH4         ALK           H          OH         CO3        HCO3       H2CO3         TOC        cNH3      cNH2CL        NDMA
  hr:min         HR/L      MMOL/L      MMOL/L      MMOL/L      MMOL/L      MMOL/L      MMOL/L      MMOL/L      MMOL/L      MMOL/L      MMOL/L      MMOL/L      MMOL/L      MMOL/L        MG/L        MG/L        MG/L        NG/L
  -------  ----------  ----------  ----------  ----------  ----------  ----------  ----------  ----------  ----------  ----------  ----------  ----------  ----------  ----------  ----------  ----------  ----------  ----------
   119:00  0.96982390  0.00000000  0.00000765  0.00004964  0.00000004  0.00000000  0.00000000  0.00043051  0.00400000  0.00000003  0.00000035  0.00000709  0.00398550  0.00022407  3.00000000  0.13011542  2.55663562  0.00029910
  
  <<< Link 2 >>>
  
  Time            Age        HOCL         NH3       NH2CL       NHCL2           I         OCL         NH4         ALK           H          OH         CO3        HCO3       H2CO3         TOC        cNH3      cNH2CL        NDMA
  hr:min         HR/L      MMOL/L      MMOL/L      MMOL/L      MMOL/L      MMOL/L      MMOL/L      MMOL/L      MMOL/L      MMOL/L      MMOL/L      MMOL/L      MMOL/L      MMOL/L        MG/L        MG/L        MG/L        NG/L
  -------  ----------  ----------  ----------  ----------  ----------  ----------  ----------  ----------  ----------  ----------  ----------  ----------  ----------  ----------  ----------  ----------  ----------  ----------
   119:00  3.68655252  0.00000000  0.00002363  0.00003135  0.00000007  0.00000000  0.00000000  0.00132887  0.00400000  0.00000003  0.00000035  0.00000709  0.00398550  0.00022407  3.00000000  0.40163150  1.61431456  0.00092455
  
  <<< Link 3 >>>
  
  Time            Age        HOCL         NH3       NH2CL       NHCL2           I         OCL         NH4         ALK           H          OH         CO3        HCO3       H2CO3         TOC        cNH3      cNH2CL        NDMA
  hr:min         HR/L      MMOL/L      MMOL/L      MMOL/L      MMOL/L      MMOL/L      MMOL/L      MMOL/L      MMOL/L      MMOL/L      MMOL/L      MMOL/L      MMOL/L      MMOL/L        MG/L        MG/L        MG/L        NG/L
  -------  ----------  ----------  ----------  ----------  ----------  ----------  ----------  ----------  ----------  ----------  ----------  ----------  ----------  ----------  ----------  ----------  ----------  ----------
   119:00  4.56601238  0.00000000  0.00002719  0.00002795  0.00000007  0.00000000  0.00000000  0.00152920  0.00400000  0.00000003  0.00000035  0.00000709  0.00398550  0.00022407  3.00000000  0.46217895  1.43933177  0.00106419
  
  <<< Link 4 >>>
  
  Time            Age        HOCL         NH3       NH2CL       NHCL2           I         OCL         NH4         ALK           H          OH         CO3        HCO3       H2CO3         TOC        cNH3      cNH2CL        NDMA
  hr:min         HR/L      MMOL/L      MMOL/L      MMOL/L      MMOL/L      MMOL/L      MMOL/L      MMOL/L      MMOL/L      MMOL/L      MMOL/L      MMOL/L      MMOL/L      MMOL/L        MG/L        MG/L        MG/L        NG/L
  -------  ----------  ----------  ----------  ----------  ----------  ----------  ----------  ----------  ----------  ----------  ----------  ----------  ----------  ----------  ----------  ----------  ----------  ----------
   119:00  17.27316284  0.00000000  0.00004644  0.00000570  0.00000003  0.00000000  0.00000000  0.00261189  0.00400000  0.00000003  0.00000035  0.00000709  0.00398550  0.00022407  3.00000000  0.78940517  0.29343215  0.00182028
  
  <<< Link 5 >>>
  
  Time            Age        HOCL         NH3       NH2CL       NHCL2           I         OCL         NH4         ALK           H          OH         CO3        HCO3       H2CO3         TOC        cNH3      cNH2CL        NDMA
  hr:min         HR/L      MMOL/L      MMOL/L      MMOL/L      MMOL/L      MMOL/L      MMOL/L      MMOL/L      MMOL/L      MMOL/L      MMOL/L      MMOL/L      MMOL/L      MMOL/L        MG/L        MG/L        MG/L        NG/L
  -------  ----------  ----------  ----------  ----------  ----------  ----------  ----------  ----------  ----------  ----------  ----------  ----------  ----------  ----------  ----------  ----------  ----------  ----------
   119:00  16.87116432  0.00000000  0.00004698  0.00000566  0.00000003  0.00000000  0.00000000  0.00264252  0.00400000  0.00000003  0.00000035  0.00000709  0.00398550  0.00022407  3.00000000  0.79866421  0.29161415  0.00184145
  
  <<< Link 6 >>>
  
  Time            Age        HOCL         NH3       NH2CL       NHCL2           I         OCL         NH4         ALK           H          OH         CO3        HCO3       H2CO3         TOC        cNH3      cNH2CL        NDMA
  hr:min         HR/L      MMOL/L      MMOL/L      MMOL/L      MMOL/L      MMOL/L      MMOL/L      MMOL/L      MMOL/L      MMOL/L      MMOL/L      MMOL/L      MMOL/L      MMOL/L        MG/L        MG/L        MG/L        NG/L
  -------  ----------  ----------  ----------  ----------  ----------  ----------  ----------  ----------  ----------  ----------  ----------  ----------  ----------  ----------  ----------  ----------  ----------  ----------
   119:00  9.43018913  0.00000000  0.00003833  0.00001090  0.00000006  0.00000000  0.00000000  0.00215598  0.00400000  0.00000003  0.00000035  0.00000709  0.00398550  0.00022407  3.00000000  0.65161330  0.56159294  0.00150140
  
  Analysis ended Tue Dec 29 23:42:25 2015
